*Heading
** Job name: vumat2 Model name: vumat2
** Generated by: Abaqus/CAE 6.14-2
*Preprint, echo=NO, model=NO, history=NO, contact=NO
**
** PARTS
**
*Part, name=brick
*Node
      1,  0.100000001,           0.,           0.
      2,  0.100000001,  0.100000001,           0.
      3,           0.,           0.,           0.
      4,           0., 0.0399999991,           0.
      5, 0.0299999993, 0.0480000004,           0.
      6, 0.0299999993, 0.0520000011,           0.
      7,           0., 0.0599999987,           0.
      8,           0.,  0.100000001,           0.
      9,  0.100000001, 0.00476190494,           0.
     10,  0.100000001, 0.00952380989,           0.
     11,  0.100000001, 0.0142857144,           0.
     12,  0.100000001, 0.0190476198,           0.
     13,  0.100000001, 0.0238095243,           0.
     14,  0.100000001, 0.0285714287,           0.
     15,  0.100000001, 0.0333333351,           0.
     16,  0.100000001, 0.0380952395,           0.
     17,  0.100000001,  0.042857144,           0.
     18,  0.100000001, 0.0476190485,           0.
     19,  0.100000001,  0.052380953,           0.
     20,  0.100000001, 0.0571428575,           0.
** ... 1014 like lines cut
*Element, type=C3D8
  1,  120,  121,  192,  186,  637,  638,  709,  703
  2,  214,  255,  256,  210,  731,  772,  773,  727
  3,   33,   32,  193,  128,  550,  549,  710,  645
  4,  111,  130,   42,   41,  628,  647,  559,  558
  5,   92,   16,   17,   93,  609,  533,  534,  610
  6,   73,  110,  158,   72,  590,  627,  675,  589
  7,    9,  491,   29,    1,  526, 1008,  546,  518
  8,   10,  104,  491,    9,  527,  621, 1008,  526
  9,  491,  299,   30,   29, 1008,  816,  547,  546
 10,   32,   31,  194,  193,  549,  548,  711,  710
 11,  104,   10,   11,  105,  621,  527,  528,  622
 12,  105,   11,   12,  106,  622,  528,  529,  623
 13,  244,  268,  298,  304,  761,  785,  815,  821
 14,  168,  169,  108,  109,  685,  686,  625,  626
 15,  165,  162,   92,   93,  682,  679,  609,  610
 16,   18,   94,   93,   17,  535,  611,  610,  534
 17,   19,   95,   94,   18,  536,  612,  611,  535
 18,   20,   96,   95,   19,  537,  613,  612,  536
 19,   21,   97,   96,   20,  538,  614,  613,  537
 20,  165,  166,  226,  224,  682,  683,  743,  741
** ... 451 like lines cut
*Nset, nset=brick_set, generate
    1,  1034,     1
*Elset, elset=brick_set, generate
   1,  471,    1
** Section: user_sec
*Solid Section, elset=brick_set, material=user_mat
,
*End Part
**  
**
** ASSEMBLY
**
*Assembly, name=Assembly
**  
*Instance, name=brick-1, part=brick
*End Instance
**  
*Nset, nset=bottom_set, instance=brick-1
   1,   3,  29,  30,  31,  32,  33,  34,  35,  36,  37,  38,  39,  40,  41,  42
  43,  44,  45,  46,  47, 518, 520, 546, 547, 548, 549, 550, 551, 552, 553, 554
 555, 556, 557, 558, 559, 560, 561, 562, 563, 564
*Elset, elset=bottom_set, instance=brick-1
   3,   4,   7,   9,  10,  29,  30,  31,  33,  34,  36,  40,  94,  99, 110, 111
 112, 114, 117, 182
*Nset, nset=top_set, instance=brick-1
   2,   8,  72,  73,  74,  75,  76,  77,  78,  79,  80,  81,  82,  83,  84,  85
  86,  87,  88,  89,  90, 519, 525, 589, 590, 591, 592, 593, 594, 595, 596, 597
 598, 599, 600, 601, 602, 603, 604, 605, 606, 607
*Elset, elset=top_set, instance=brick-1
   6,  55,  56,  62,  69,  70,  71,  72,  73,  74,  75,  76,  77,  78,  84,  85
  87,  88, 102, 132
*End Assembly
** 
** MATERIALS
** 
*Material, name=user_mat
*Density
2700.,
*Depvar
      6,
*User Material, constants=14
 2.1e+11,    0.3,  8e+08,  6e+08, 0.0089,  0.168,    1.1,     1.
   293.,  1700.,  7800.,    34.,   460.,    0.9
** ----------------------------------------------------------------
** 
** STEP: Step-1
** 
*Step, name=Step-1, nlgeom=YES
*Dynamic, Explicit
, 0.003
*Bulk Viscosity
0.06, 1.2
** 
** BOUNDARY CONDITIONS
** 
** Name: fix_bc Type: Displacement/Rotation
*Boundary
bottom_set, 1, 1
bottom_set, 2, 2
bottom_set, 3, 3
** Name: velocity_bc Type: Velocity/Angular velocity
*Boundary, type=VELOCITY
top_set, 1, 1
top_set, 2, 2, 5.
top_set, 3, 3
** 
** OUTPUT REQUESTS
** 
*Restart, write, number interval=1, time marks=NO
** 
** FIELD OUTPUT: F-Output-1
** 
*Output, field, number interval=100
*Node Output
A, RF, U, V
*Element Output, directions=YES
EVF, LE, PE, PEEQ, PEEQVAVG, PEVAVG, S, SDV, STATUS, SVAVG, TEMP
*Contact Output
CSTRESS, 
** 
** HISTORY OUTPUT: H-Output-1
** 
*Output, history, variable=PRESELECT
*End Step
